DATABASE C:\Program Files (x86)\USGS\Phreeqc Interactive 3.6.2-15100\database\phreeqc.dat
SOLUTION 1
    temp      25
    pH        7
    pe        4
    redox     pe
    units     mmol/kgw
    density   1
    -water    0.280 # kg


EQUILIBRIUM_PHASES 1
    CO2(g)    0.58 10

SAVE SOLUTION 1

END

USE SOLUTION 1
GAS_PHASE 1
    -fixed_pressure
    -pressure 1
    -volume 0.02
    -temperature 25
    CO2(g)    3.8

Save SOLUTION 2
END

